
 OpenBabel07292115403D

 36 39  0  0  1  0  0  0  0  0999 V2000
   -2.4420    4.4510    3.0900 C   0  0  0  0  0  0  0  0  0  0  0  0
   -3.8350    3.9250    2.9250 C   0  0  0  0  0  0  0  0  0  0  0  0
   -4.6440    3.8920    4.0340 N   0  0  0  0  0  0  0  0  0  0  0  0
   -5.8680    3.7220    3.6530 C   0  0  0  0  0  0  0  0  0  0  0  0
   -6.0480    3.0400    2.1070 S   0  0  0  0  0  0  0  0  0  0  0  0
   -4.4210    3.4660    1.7700 C   0  0  0  0  0  0  0  0  0  0  0  0
   -3.8410    3.2810    0.4230 C   0  0  0  0  0  0  0  0  0  0  0  0
   -4.4730    3.7710   -0.7180 C   0  0  0  0  0  0  0  0  0  0  0  0
   -3.9250    3.5560   -1.9740 C   0  0  0  0  0  0  0  0  0  0  0  0
   -2.7220    2.8560   -2.1230 C   0  0  0  0  0  0  0  0  0  0  0  0
   -2.0640    2.6260   -3.4620 C   0  0  0  0  0  0  0  0  0  0  0  0
   -2.9540    2.8380   -4.5900 N   0  0  0  0  0  0  0  0  0  0  0  0
   -3.5240    1.8220   -5.2380 C   0  0  0  0  0  0  0  0  0  0  0  0
   -3.2340    0.6390   -5.0590 O   0  0  0  0  0  0  0  0  0  0  0  0
   -4.5840    2.2270   -6.2520 C   0  0  2  0  0  0  0  0  0  0  0  0
   -5.9930    2.1840   -5.6420 C   0  0  0  0  0  0  0  0  0  0  0  0
   -6.8790    1.6710   -6.7610 C   0  0  1  0  0  0  0  0  0  0  0  0
   -7.1950    2.7320   -7.6470 O   0  0  0  0  0  0  0  0  0  0  0  0
   -5.9910    0.6540   -7.4580 C   0  0  0  0  0  0  0  0  0  0  0  0
   -4.6630    1.2840   -7.3680 N   0  0  0  0  0  0  0  0  0  0  0  0
   -3.5930    1.1250   -8.1590 C   0  0  0  0  0  0  0  0  0  0  0  0
   -2.5450    1.7110   -7.9100 O   0  0  0  0  0  0  0  0  0  0  0  0
   -3.7120    0.2310   -9.3980 C   0  0  1  0  0  0  0  0  0  0  0  0
   -3.0130    0.9140  -10.4660 N   0  0  0  0  0  0  0  0  0  0  0  0
   -3.5410    1.2730  -11.6390 C   0  0  0  0  0  0  0  0  0  0  0  0
   -4.7280    1.1140  -11.9250 O   0  0  0  0  0  0  0  0  0  0  0  0
   -2.5390    1.8460  -12.5900 C   0  0  0  0  0  0  0  0  0  0  0  0
   -1.3070    1.8640  -11.9990 F   0  0  0  0  0  0  0  0  0  0  0  0
   -2.9100    2.9460  -13.5420 C   0  0  0  0  0  0  0  0  0  0  0  0
   -2.6840    1.5770  -14.0600 C   0  0  0  0  0  0  0  0  0  0  0  0
   -3.1540   -1.2000   -9.2220 C   0  0  0  0  0  0  0  0  0  0  0  0
   -3.7230   -1.8520   -7.9570 C   0  0  0  0  0  0  0  0  0  0  0  0
   -1.6320   -1.1900   -9.0840 C   0  0  0  0  0  0  0  0  0  0  0  0
   -3.5180   -2.0690  -10.4340 C   0  0  0  0  0  0  0  0  0  0  0  0
   -2.1020    2.3580   -0.9750 C   0  0  0  0  0  0  0  0  0  0  0  0
   -2.6520    2.5700    0.2770 C   0  0  0  0  0  0  0  0  0  0  0  0
  2  1  1  0  0  0  0
  2  3  1  0  0  0  0
  4  3  2  0  0  0  0
  5  4  1  0  0  0  0
  6  5  1  0  0  0  0
  6  2  2  0  0  0  0
  7  6  1  0  0  0  0
  8  7  2  0  0  0  0
  9  8  1  0  0  0  0
 10  9  2  0  0  0  0
 10 35  1  0  0  0  0
 11 10  1  0  0  0  0
 12 11  1  0  0  0  0
 13 14  2  0  0  0  0
 13 12  1  0  0  0  0
 15 16  1  0  0  0  0
 15 13  1  1  0  0  0
 17 18  1  6  0  0  0
 17 16  1  0  0  0  0
 19 20  1  0  0  0  0
 19 17  1  0  0  0  0
 20 15  1  0  0  0  0
 21 22  2  0  0  0  0
 21 20  1  0  0  0  0
 23 24  1  6  0  0  0
 23 31  1  0  0  0  0
 23 21  1  0  0  0  0
 25 24  1  0  0  0  0
 26 25  2  0  0  0  0
 27 28  1  0  0  0  0
 27 25  1  0  0  0  0
 29 27  1  0  0  0  0
 30 29  1  0  0  0  0
 30 27  1  0  0  0  0
 31 33  1  0  0  0  0
 31 32  1  0  0  0  0
 34 31  1  0  0  0  0
 35 36  2  0  0  0  0
 36  7  1  0  0  0  0
M  END
>  <MOL Chiral Flag>
1

$$$$
