
 OpenBabel07292115423D

 20 22  0  0  0  0  0  0  0  0999 V2000
    0.9150   -5.1980   -6.4310 N   0  0  0  0  0  0  0  0  0  0  0  0
    0.3510   -4.2500   -7.3870 C   0  0  0  0  0  0  0  0  0  0  0  0
    1.2070   -4.2400   -8.6280 C   0  0  0  0  0  0  0  0  0  0  0  0
    2.5970   -3.8760   -8.3200 N   0  0  0  0  0  0  0  0  0  0  0  0
    3.3730   -3.1050   -9.1770 C   0  0  0  0  0  0  0  0  0  0  0  0
    4.6440   -3.5350   -9.5420 C   0  0  0  0  0  0  0  0  0  0  0  0
    5.3810   -2.7880  -10.4450 C   0  0  0  0  0  0  0  0  0  0  0  0
    6.7610   -3.1560  -10.8700 C   0  0  0  0  0  0  0  0  0  0  0  0
    7.4330   -4.2000  -10.2350 C   0  0  0  0  0  0  0  0  0  0  0  0
    8.7150   -4.5570  -10.6050 C   0  0  0  0  0  0  0  0  0  0  0  0
    9.3610   -3.8650  -11.6140 C   0  0  0  0  0  0  0  0  0  0  0  0
    8.7380   -2.8190  -12.2480 C   0  0  0  0  0  0  0  0  0  0  0  0
    7.4420   -2.4620  -11.8940 C   0  0  0  0  0  0  0  0  0  0  0  0
    6.8830   -1.4270  -12.5650 O   0  0  0  0  0  0  0  0  0  0  0  0
    4.8820   -1.6570  -10.9560 N   0  0  0  0  0  0  0  0  0  0  0  0
    3.6370   -1.2400  -10.6520 N   0  0  0  0  0  0  0  0  0  0  0  0
    2.8760   -1.9150   -9.7920 C   0  0  0  0  0  0  0  0  0  0  0  0
    1.6830   -1.3650   -9.5480 N   0  0  0  0  0  0  0  0  0  0  0  0
    3.1770   -4.5760   -7.1600 C   0  0  0  0  0  0  0  0  0  0  0  0
    2.2190   -4.6970   -5.9940 C   0  0  0  0  0  0  0  0  0  0  0  0
  1 20  2  0  0  0  0
  2  1  1  0  0  0  0
  3  4  1  0  0  0  0
  3  2  2  0  0  0  0
  4 19  2  0  0  0  0
  5  4  1  0  0  0  0
  6  5  1  0  0  0  0
  7  6  2  0  0  0  0
  8  7  1  0  0  0  0
  8  9  2  0  0  0  0
 10  9  1  0  0  0  0
 11 10  2  0  0  0  0
 12 13  2  0  0  0  0
 12 11  1  0  0  0  0
 13  8  1  0  0  0  0
 14 13  1  0  0  0  0
 15 16  2  0  0  0  0
 15  7  1  0  0  0  0
 16 17  1  0  0  0  0
 17 18  1  0  0  0  0
 17  5  2  0  0  0  0
 19 20  1  0  0  0  0
M  END
>  <MOL Chiral Flag>
0

$$$$
