ligand.pdb
 OpenBabel08312118323D

 36 39  0  0  1  0  0  0  0  0999 V2000
   37.4720  -11.2900  -19.0570 C   0  0  0  0  0  0  0  0  0  0  0  0
   36.0790  -11.8160  -19.2220 C   0  0  0  0  0  0  0  0  0  0  0  0
   35.2700  -11.8490  -18.1130 N   0  0  0  0  0  0  0  0  0  0  0  0
   34.0460  -12.0190  -18.4940 C   0  0  0  0  0  0  0  0  0  0  0  0
   33.8660  -12.7010  -20.0400 S   0  0  0  0  0  0  0  0  0  0  0  0
   35.4930  -12.2750  -20.3770 C   0  0  0  0  0  0  0  0  0  0  0  0
   36.0730  -12.4600  -21.7240 C   0  0  0  0  0  0  0  0  0  0  0  0
   35.4410  -11.9700  -22.8650 C   0  0  0  0  0  0  0  0  0  0  0  0
   35.9890  -12.1850  -24.1210 C   0  0  0  0  0  0  0  0  0  0  0  0
   37.1920  -12.8850  -24.2700 C   0  0  0  0  0  0  0  0  0  0  0  0
   37.8500  -13.1150  -25.6090 C   0  0  0  0  0  0  0  0  0  0  0  0
   36.9600  -12.9030  -26.7370 N   0  0  0  0  0  0  0  0  0  0  0  0
   36.3900  -13.9190  -27.3850 C   0  0  0  0  0  0  0  0  0  0  0  0
   36.6800  -15.1020  -27.2060 O   0  0  0  0  0  0  0  0  0  0  0  0
   35.3300  -13.5140  -28.3990 C   0  0  2  0  0  0  0  0  0  0  0  0
   33.9210  -13.5570  -27.7890 C   0  0  0  0  0  0  0  0  0  0  0  0
   33.0350  -14.0700  -28.9080 C   0  0  1  0  0  0  0  0  0  0  0  0
   32.7190  -13.0090  -29.7940 O   0  0  0  0  0  0  0  0  0  0  0  0
   33.9230  -15.0870  -29.6050 C   0  0  0  0  0  0  0  0  0  0  0  0
   35.2510  -14.4570  -29.5150 N   0  0  0  0  0  0  0  0  0  0  0  0
   36.3210  -14.6160  -30.3060 C   0  0  0  0  0  0  0  0  0  0  0  0
   37.3690  -14.0300  -30.0570 O   0  0  0  0  0  0  0  0  0  0  0  0
   36.2020  -15.5100  -31.5450 C   0  0  1  0  0  0  0  0  0  0  0  0
   36.9010  -14.8270  -32.6130 N   0  0  0  0  0  0  0  0  0  0  0  0
   36.3730  -14.4680  -33.7860 C   0  0  0  0  0  0  0  0  0  0  0  0
   35.1860  -14.6270  -34.0720 O   0  0  0  0  0  0  0  0  0  0  0  0
   37.3750  -13.8950  -34.7370 C   0  0  0  0  0  0  0  0  0  0  0  0
   38.6070  -13.8770  -34.1460 F   0  0  0  0  0  0  0  0  0  0  0  0
   37.0040  -12.7950  -35.6890 C   0  0  0  0  0  0  0  0  0  0  0  0
   37.2300  -14.1640  -36.2070 C   0  0  0  0  0  0  0  0  0  0  0  0
   36.7600  -16.9410  -31.3690 C   0  0  0  0  0  0  0  0  0  0  0  0
   36.1910  -17.5930  -30.1040 C   0  0  0  0  0  0  0  0  0  0  0  0
   38.2820  -16.9310  -31.2310 C   0  0  0  0  0  0  0  0  0  0  0  0
   36.3960  -17.8100  -32.5810 C   0  0  0  0  0  0  0  0  0  0  0  0
   37.8120  -13.3830  -23.1220 C   0  0  0  0  0  0  0  0  0  0  0  0
   37.2620  -13.1710  -21.8700 C   0  0  0  0  0  0  0  0  0  0  0  0
  2  1  1  0  0  0  0
  2  3  1  0  0  0  0
  4  3  1  0  0  0  0
  5  4  1  0  0  0  0
  6  5  1  0  0  0  0
  6  2  2  0  0  0  0
  7  6  1  0  0  0  0
  8  7  2  0  0  0  0
  9  8  1  0  0  0  0
 10  9  2  0  0  0  0
 10 35  1  0  0  0  0
 11 10  1  0  0  0  0
 12 11  1  0  0  0  0
 13 14  2  0  0  0  0
 13 12  1  0  0  0  0
 15 16  1  0  0  0  0
 15 13  1  1  0  0  0
 17 18  1  6  0  0  0
 17 16  1  0  0  0  0
 19 20  1  0  0  0  0
 19 17  1  0  0  0  0
 20 15  1  0  0  0  0
 21 22  2  0  0  0  0
 21 20  1  0  0  0  0
 23 24  1  6  0  0  0
 23 31  1  0  0  0  0
 23 21  1  0  0  0  0
 25 24  1  0  0  0  0
 26 25  2  0  0  0  0
 27 28  1  0  0  0  0
 27 25  1  0  0  0  0
 29 27  1  0  0  0  0
 30 29  1  0  0  0  0
 30 27  1  0  0  0  0
 31 33  1  0  0  0  0
 31 32  1  0  0  0  0
 34 31  1  0  0  0  0
 35 36  2  0  0  0  0
 36  7  1  0  0  0  0
M  END
$$$$
