ligand.pdb
 OpenBabel05092110383D

 36 39  0  0  1  0  0  0  0  0999 V2000
  -34.8640   12.6860  -21.0760 C   0  0  0  0  0  0  0  0  0  0  0  0
  -36.5600   14.5670  -33.2670 N   0  0  0  0  0  0  0  0  0  0  0  0
  -35.9930   14.3210  -30.9400 C   0  0  0  0  0  0  0  0  0  0  0  0
  -35.8000   17.4010  -30.7810 C   0  0  0  0  0  0  0  0  0  0  0  0
  -36.2910   17.5070  -33.2100 C   0  0  0  0  0  0  0  0  0  0  0  0
  -38.0040   16.6040  -31.6590 C   0  0  0  0  0  0  0  0  0  0  0  0
  -34.9870   13.1950  -29.0440 C   0  0  1  0  0  0  0  0  0  0  0  0
  -33.5450   14.6590  -30.3490 C   0  0  0  0  0  0  0  0  0  0  0  0
  -36.0260   13.6340  -28.0110 C   0  0  0  0  0  0  0  0  0  0  0  0
  -37.3470   13.5210  -23.7860 C   0  0  0  0  0  0  0  0  0  0  0  0
  -36.7130   13.4710  -22.5470 C   0  0  0  0  0  0  0  0  0  0  0  0
  -35.5100   12.7870  -22.4000 C   0  0  0  0  0  0  0  0  0  0  0  0
  -35.5990   12.1810  -24.7290 C   0  0  0  0  0  0  0  0  0  0  0  0
  -35.3410   12.1980  -19.8850 C   0  0  0  0  0  0  0  0  0  0  0  0
  -33.2810   12.6540  -19.2500 C   0  0  0  0  0  0  0  0  0  0  0  0
  -35.9000   15.2480  -32.1630 C   0  0  2  0  0  0  0  0  0  0  0  0
  -36.4940   16.6750  -31.9430 C   0  0  0  0  0  0  0  0  0  0  0  0
  -34.8950   14.1120  -30.1870 N   0  0  0  0  0  0  0  0  0  0  0  0
  -37.0530   13.7690  -30.6850 O   0  0  0  0  0  0  0  0  0  0  0  0
  -33.5740   13.2410  -28.4290 C   0  0  0  0  0  0  0  0  0  0  0  0
  -32.6760   13.6730  -29.5780 C   0  0  1  0  0  0  0  0  0  0  0  0
  -32.2990   12.5480  -30.3880 O   0  0  0  0  0  0  0  0  0  0  0  0
  -36.2840   14.8280  -27.8270 O   0  0  0  0  0  0  0  0  0  0  0  0
  -36.6050   12.6450  -27.3290 N   0  0  0  0  0  0  0  0  0  0  0  0
  -37.5160   12.8890  -26.2210 C   0  0  0  0  0  0  0  0  0  0  0  0
  -36.7990   12.8700  -24.8970 C   0  0  0  0  0  0  0  0  0  0  0  0
  -34.9550   12.1540  -23.5060 C   0  0  0  0  0  0  0  0  0  0  0  0
  -34.4310   12.2180  -18.8470 N   0  0  0  0  0  0  0  0  0  0  0  0
  -33.1850   13.1130  -20.9020 S   0  0  0  0  0  0  0  0  0  0  0  0
  -36.7210   11.6950  -19.6070 C   0  0  0  0  0  0  0  0  0  0  0  0
  -36.1090   14.0720  -34.4250 C   0  0  0  0  0  0  0  0  0  0  0  0
  -37.1900   13.4430  -35.3350 C   0  0  0  0  0  0  0  0  0  0  0  0
  -34.9360   14.0830  -34.7720 O   0  0  0  0  0  0  0  0  0  0  0  0
  -38.4130   13.3340  -34.6480 F   0  0  0  0  0  0  0  0  0  0  0  0
  -37.3290   13.7580  -36.7700 C   0  0  0  0  0  0  0  0  0  0  0  0
  -36.9400   12.3760  -36.3260 C   0  0  0  0  0  0  0  0  0  0  0  0
  1 29  1  0  0  0  0
  1 14  2  0  0  0  0
  3 19  2  0  0  0  0
  3 18  1  0  0  0  0
  5 17  1  0  0  0  0
  7 20  1  0  0  0  0
  7  9  1  1  0  0  0
  8 18  1  0  0  0  0
  8 21  1  0  0  0  0
  9 23  2  0  0  0  0
  9 24  1  0  0  0  0
 10 11  2  0  0  0  0
 11 12  1  0  0  0  0
 12  1  1  0  0  0  0
 13 27  1  0  0  0  0
 14 30  1  0  0  0  0
 14 28  1  0  0  0  0
 15 28  2  0  0  0  0
 16  2  1  6  0  0  0
 16 17  1  0  0  0  0
 16  3  1  0  0  0  0
 17  6  1  0  0  0  0
 17  4  1  0  0  0  0
 18  7  1  0  0  0  0
 21 22  1  6  0  0  0
 21 20  1  0  0  0  0
 24 25  1  0  0  0  0
 25 26  1  0  0  0  0
 26 13  2  0  0  0  0
 26 10  1  0  0  0  0
 27 12  2  0  0  0  0
 29 15  1  0  0  0  0
 31  2  1  0  0  0  0
 32 34  1  0  0  0  0
 32 31  1  0  0  0  0
 33 31  2  0  0  0  0
 35 36  1  0  0  0  0
 35 32  1  0  0  0  0
 36 32  1  0  0  0  0
M  END
$$$$
