ligand.pdb
 OpenBabel08262105303D

 36 39  0  0  1  0  0  0  0  0999 V2000
  -29.7950   12.9450  -32.7470 N   0  0  0  0  0  0  0  0  0  0  0  0
  -29.1670   12.7010  -30.4490 C   0  0  0  0  0  0  0  0  0  0  0  0
  -28.9650   15.7060  -30.2100 C   0  0  0  0  0  0  0  0  0  0  0  0
  -31.1130   15.0800  -31.2880 C   0  0  0  0  0  0  0  0  0  0  0  0
  -29.2340   15.9300  -32.6680 C   0  0  0  0  0  0  0  0  0  0  0  0
  -28.1290   11.5300  -28.5840 C   0  0  1  0  0  0  0  0  0  0  0  0
  -26.7290   13.0580  -29.8610 C   0  0  0  0  0  0  0  0  0  0  0  0
  -29.1810   11.8950  -27.5410 C   0  0  0  0  0  0  0  0  0  0  0  0
  -30.4410   11.4570  -23.2080 C   0  0  0  0  0  0  0  0  0  0  0  0
  -29.8080   11.3540  -21.9760 C   0  0  0  0  0  0  0  0  0  0  0  0
  -28.5720   10.7150  -21.8720 C   0  0  0  0  0  0  0  0  0  0  0  0
  -28.5950   10.3340  -24.2500 C   0  0  0  0  0  0  0  0  0  0  0  0
  -28.4400   10.0700  -19.3600 C   0  0  0  0  0  0  0  0  0  0  0  0
  -26.3700   10.4490  -18.7100 C   0  0  0  0  0  0  0  0  0  0  0  0
  -29.0690   13.6130  -31.6800 C   0  0  2  0  0  0  0  0  0  0  0  0
  -29.5910   15.0670  -31.4520 C   0  0  0  0  0  0  0  0  0  0  0  0
  -28.0650   12.4790  -29.7070 N   0  0  0  0  0  0  0  0  0  0  0  0
  -30.2010   12.0850  -30.2440 O   0  0  0  0  0  0  0  0  0  0  0  0
  -26.7150   11.5940  -27.9780 C   0  0  0  0  0  0  0  0  0  0  0  0
  -25.8410   12.0580  -29.1350 C   0  0  1  0  0  0  0  0  0  0  0  0
  -25.5020   10.9410  -29.9640 O   0  0  0  0  0  0  0  0  0  0  0  0
  -29.5030   13.0620  -27.3510 O   0  0  0  0  0  0  0  0  0  0  0  0
  -29.6800   10.8780  -26.8430 N   0  0  0  0  0  0  0  0  0  0  0  0
  -30.5480   11.0900  -25.6950 C   0  0  0  0  0  0  0  0  0  0  0  0
  -29.8460   10.9380  -24.3650 C   0  0  0  0  0  0  0  0  0  0  0  0
  -27.9740   10.2070  -23.0210 C   0  0  0  0  0  0  0  0  0  0  0  0
  -27.9360   10.5470  -20.5470 C   0  0  0  0  0  0  0  0  0  0  0  0
  -27.5310   10.0330  -18.3190 N   0  0  0  0  0  0  0  0  0  0  0  0
  -26.2610   10.9230  -20.3560 S   0  0  0  0  0  0  0  0  0  0  0  0
  -29.8340    9.6030  -19.0940 C   0  0  0  0  0  0  0  0  0  0  0  0
  -29.3750   12.5680  -33.9580 C   0  0  0  0  0  0  0  0  0  0  0  0
  -30.5130   12.0550  -34.8580 C   0  0  0  0  0  0  0  0  0  0  0  0
  -28.2110   12.6280  -34.3400 O   0  0  0  0  0  0  0  0  0  0  0  0
  -31.7120   11.8240  -34.1400 F   0  0  0  0  0  0  0  0  0  0  0  0
  -30.7080   12.5640  -36.2290 C   0  0  0  0  0  0  0  0  0  0  0  0
  -30.2870   11.1370  -35.9930 C   0  0  0  0  0  0  0  0  0  0  0  0
  2 18  2  0  0  0  0
  2 17  1  0  0  0  0
  5 16  1  0  0  0  0
  6 19  1  0  0  0  0
  6  8  1  1  0  0  0
  7 17  1  0  0  0  0
  7 20  1  0  0  0  0
  8 22  2  0  0  0  0
  8 23  1  0  0  0  0
  9 10  2  0  0  0  0
 10 11  1  0  0  0  0
 11 27  1  0  0  0  0
 12 26  1  0  0  0  0
 13 30  1  0  0  0  0
 13 28  1  0  0  0  0
 14 28  2  0  0  0  0
 15  1  1  6  0  0  0
 15 16  1  0  0  0  0
 15  2  1  0  0  0  0
 16  4  1  0  0  0  0
 16  3  1  0  0  0  0
 17  6  1  0  0  0  0
 20 21  1  6  0  0  0
 20 19  1  0  0  0  0
 23 24  1  0  0  0  0
 24 25  1  0  0  0  0
 25 12  2  0  0  0  0
 25  9  1  0  0  0  0
 26 11  2  0  0  0  0
 27 29  1  0  0  0  0
 27 13  2  0  0  0  0
 29 14  1  0  0  0  0
 31  1  1  0  0  0  0
 32 34  1  0  0  0  0
 32 31  1  0  0  0  0
 33 31  2  0  0  0  0
 35 36  1  0  0  0  0
 35 32  1  0  0  0  0
 36 32  1  0  0  0  0
M  END
$$$$
