warhead.pdb
 OpenBabel08262105293D

 20 22  0  0  0  0  0  0  0  0999 V2000
  -32.8760   17.9520  -27.8240 N   0  0  0  0  0  0  0  0  0  0  0  0
  -33.9920   17.2640  -27.1690 C   0  0  0  0  0  0  0  0  0  0  0  0
  -34.7180   16.3790  -28.1750 C   0  0  0  0  0  0  0  0  0  0  0  0
  -35.1710   17.1640  -29.3290 N   0  0  0  0  0  0  0  0  0  0  0  0
  -34.1450   18.0280  -29.9250 C   0  0  0  0  0  0  0  0  0  0  0  0
  -33.4240   18.8400  -28.8540 C   0  0  0  0  0  0  0  0  0  0  0  0
  -36.0940   16.5550  -30.2140 C   0  0  0  0  0  0  0  0  0  0  0  0
  -37.4240   16.9630  -30.2460 C   0  0  0  0  0  0  0  0  0  0  0  0
  -38.3160   16.3260  -31.1050 C   0  0  0  0  0  0  0  0  0  0  0  0
  -37.9170   15.3450  -31.9250 N   0  0  0  0  0  0  0  0  0  0  0  0
  -36.6230   14.9570  -31.9530 N   0  0  0  0  0  0  0  0  0  0  0  0
  -35.7180   15.5110  -31.1200 C   0  0  0  0  0  0  0  0  0  0  0  0
  -34.4880   14.9890  -31.2260 N   0  0  0  0  0  0  0  0  0  0  0  0
  -39.7590   16.6980  -31.1630 C   0  0  0  0  0  0  0  0  0  0  0  0
  -40.6550   16.0640  -32.0390 C   0  0  0  0  0  0  0  0  0  0  0  0
  -41.9860   16.4870  -32.1210 C   0  0  0  0  0  0  0  0  0  0  0  0
  -42.4430   17.5060  -31.3010 C   0  0  0  0  0  0  0  0  0  0  0  0
  -41.5820   18.1180  -30.4110 C   0  0  0  0  0  0  0  0  0  0  0  0
  -40.2510   17.7320  -30.3520 C   0  0  0  0  0  0  0  0  0  0  0  0
  -40.2530   15.1060  -32.9160 O   0  0  0  0  0  0  0  0  0  0  0  0
  1  2  1  0  0  0  0
  3  2  1  0  0  0  0
  4  3  1  0  0  0  0
  5  4  1  0  0  0  0
  5  6  1  0  0  0  0
  6  1  1  0  0  0  0
  7  4  1  0  0  0  0
  8  7  1  0  0  0  0
  9  8  2  0  0  0  0
 10  9  1  0  0  0  0
 11 10  2  0  0  0  0
 11 12  1  0  0  0  0
 12  7  2  0  0  0  0
 13 12  1  0  0  0  0
 14  9  1  0  0  0  0
 14 19  2  0  0  0  0
 15 14  1  0  0  0  0
 16 15  2  0  0  0  0
 16 17  1  0  0  0  0
 17 18  2  0  0  0  0
 18 19  1  0  0  0  0
 20 15  1  0  0  0  0
M  END
$$$$
